electric-grid/physical/synthetic/synAustinTD/models/syn-austin-D_only-v03/P3U/base/opendss/p3uhs9_1247/Master.dss
Clear

New Circuit.substation_p3uhs9_69 bus1=p3uhs9_69 pu=1.0 basekV=69.0 R1=1e-05 X1=1e-05 R0=1e-05 X0=1e-05

Redirect Transformers.dss
Redirect p3uhs9_1247--p3udt22171/Transformers.dss
Redirect p3uhs9_1247--p3udt16174/Transformers.dss
Redirect p3uhs9_1247--p3udt32034/Transformers.dss
Redirect Regulators.dss
Redirect p3uhs9_1247--p3udt22171/Loads.dss
Redirect p3uhs9_1247--p3udt16174/Loads.dss
Redirect p3uhs9_1247--p3udt32034/Loads.dss
Redirect LineCodes.dss
Redirect p3uhs9_1247--p3udt22171/LineCodes.dss
Redirect p3uhs9_1247--p3udt16174/LineCodes.dss
Redirect p3uhs9_1247--p3udt32034/LineCodes.dss
Redirect Lines.dss
Redirect p3uhs9_1247--p3udt22171/Lines.dss
Redirect p3uhs9_1247--p3udt16174/Lines.dss
Redirect p3uhs9_1247--p3udt32034/Lines.dss
Redirect p3uhs9_1247--p3udt22171/Capacitors.dss
Redirect p3uhs9_1247--p3udt16174/Capacitors.dss
Redirect p3uhs9_1247--p3udt32034/Capacitors.dss

Set Voltagebases=[0.2080002494301389, 0.48, 7.199560000000001, 12.47, 69.0]

Calcvoltagebases

Buscoords Buscoords.dss

Solve